
---------- Begin Simulation Statistics ----------
sim_seconds                                  0.023938                       # Number of seconds simulated
sim_ticks                                 23937987000                       # Number of ticks simulated
final_tick                                23937987000                       # Number of ticks from beginning of simulation (restored from checkpoints and never reset)
sim_freq                                 1000000000000                       # Frequency of simulated ticks
host_inst_rate                                1610201                       # Simulator instruction rate (inst/s)
host_op_rate                                  1709763                       # Simulator op (including micro ops) rate (op/s)
host_tick_rate                              854885363                       # Simulator tick rate (ticks/s)
host_mem_usage                                 641076                       # Number of bytes of host memory used
host_seconds                                    28.00                       # Real time elapsed on the host
sim_insts                                    45087846                       # Number of instructions simulated
sim_ops                                      47875735                       # Number of ops (including micro ops) simulated
system.voltage_domain.voltage                       1                       # Voltage in Volts
system.clk_domain.clock                          1000                       # Clock period in ticks
system.mem_ctrls.bytes_read::cpu.inst          103024                       # Number of bytes read from this memory
system.mem_ctrls.bytes_read::cpu.data         5026656                       # Number of bytes read from this memory
system.mem_ctrls.bytes_read::total            5129680                       # Number of bytes read from this memory
system.mem_ctrls.bytes_inst_read::cpu.inst       103024                       # Number of instructions bytes read from this memory
system.mem_ctrls.bytes_inst_read::total        103024                       # Number of instructions bytes read from this memory
system.mem_ctrls.bytes_written::writebacks       340736                       # Number of bytes written to this memory
system.mem_ctrls.bytes_written::total          340736                       # Number of bytes written to this memory
system.mem_ctrls.num_reads::cpu.inst             6439                       # Number of read requests responded to by this memory
system.mem_ctrls.num_reads::cpu.data           314166                       # Number of read requests responded to by this memory
system.mem_ctrls.num_reads::total              320605                       # Number of read requests responded to by this memory
system.mem_ctrls.num_writes::writebacks         21296                       # Number of write requests responded to by this memory
system.mem_ctrls.num_writes::total              21296                       # Number of write requests responded to by this memory
system.mem_ctrls.bw_read::cpu.inst            4303787                       # Total read bandwidth from this memory (bytes/s)
system.mem_ctrls.bw_read::cpu.data          209986579                       # Total read bandwidth from this memory (bytes/s)
system.mem_ctrls.bw_read::total             214290366                       # Total read bandwidth from this memory (bytes/s)
system.mem_ctrls.bw_inst_read::cpu.inst       4303787                       # Instruction read bandwidth from this memory (bytes/s)
system.mem_ctrls.bw_inst_read::total          4303787                       # Instruction read bandwidth from this memory (bytes/s)
system.mem_ctrls.bw_write::writebacks        14234113                       # Write bandwidth from this memory (bytes/s)
system.mem_ctrls.bw_write::total             14234113                       # Write bandwidth from this memory (bytes/s)
system.mem_ctrls.bw_total::writebacks        14234113                       # Total bandwidth to/from this memory (bytes/s)
system.mem_ctrls.bw_total::cpu.inst           4303787                       # Total bandwidth to/from this memory (bytes/s)
system.mem_ctrls.bw_total::cpu.data         209986579                       # Total bandwidth to/from this memory (bytes/s)
system.mem_ctrls.bw_total::total            228524479                       # Total bandwidth to/from this memory (bytes/s)
system.mem_ctrls.readReqs                           0                       # Number of read requests accepted
system.mem_ctrls.writeReqs                          0                       # Number of write requests accepted
system.mem_ctrls.readBursts                         0                       # Number of DRAM read bursts, including those serviced by the write queue
system.mem_ctrls.writeBursts                        0                       # Number of DRAM write bursts, including those merged in the write queue
system.mem_ctrls.bytesReadDRAM                      0                       # Total number of bytes read from DRAM
system.mem_ctrls.bytesReadWrQ                       0                       # Total number of bytes read from write queue
system.mem_ctrls.bytesWritten                       0                       # Total number of bytes written to DRAM
system.mem_ctrls.bytesReadSys                       0                       # Total read bytes from the system interface side
system.mem_ctrls.bytesWrittenSys                    0                       # Total written bytes from the system interface side
system.mem_ctrls.servicedByWrQ                      0                       # Number of DRAM read bursts serviced by the write queue
system.mem_ctrls.mergedWrBursts                     0                       # Number of DRAM write bursts merged with an existing one
system.mem_ctrls.neitherReadNorWriteReqs            0                       # Number of requests that are neither read nor write
system.mem_ctrls.perBankRdBursts::0                 0                       # Per bank write bursts
system.mem_ctrls.perBankRdBursts::1                 0                       # Per bank write bursts
system.mem_ctrls.perBankRdBursts::2                 0                       # Per bank write bursts
system.mem_ctrls.perBankRdBursts::3                 0                       # Per bank write bursts
system.mem_ctrls.perBankRdBursts::4                 0                       # Per bank write bursts
system.mem_ctrls.perBankRdBursts::5                 0                       # Per bank write bursts
system.mem_ctrls.perBankRdBursts::6                 0                       # Per bank write bursts
system.mem_ctrls.perBankRdBursts::7                 0                       # Per bank write bursts
system.mem_ctrls.perBankRdBursts::8                 0                       # Per bank write bursts
system.mem_ctrls.perBankRdBursts::9                 0                       # Per bank write bursts
system.mem_ctrls.perBankRdBursts::10                0                       # Per bank write bursts
system.mem_ctrls.perBankRdBursts::11                0                       # Per bank write bursts
system.mem_ctrls.perBankRdBursts::12                0                       # Per bank write bursts
system.mem_ctrls.perBankRdBursts::13                0                       # Per bank write bursts
system.mem_ctrls.perBankRdBursts::14                0                       # Per bank write bursts
system.mem_ctrls.perBankRdBursts::15                0                       # Per bank write bursts
system.mem_ctrls.perBankWrBursts::0                 0                       # Per bank write bursts
system.mem_ctrls.perBankWrBursts::1                 0                       # Per bank write bursts
system.mem_ctrls.perBankWrBursts::2                 0                       # Per bank write bursts
system.mem_ctrls.perBankWrBursts::3                 0                       # Per bank write bursts
system.mem_ctrls.perBankWrBursts::4                 0                       # Per bank write bursts
system.mem_ctrls.perBankWrBursts::5                 0                       # Per bank write bursts
system.mem_ctrls.perBankWrBursts::6                 0                       # Per bank write bursts
system.mem_ctrls.perBankWrBursts::7                 0                       # Per bank write bursts
system.mem_ctrls.perBankWrBursts::8                 0                       # Per bank write bursts
system.mem_ctrls.perBankWrBursts::9                 0                       # Per bank write bursts
system.mem_ctrls.perBankWrBursts::10                0                       # Per bank write bursts
system.mem_ctrls.perBankWrBursts::11                0                       # Per bank write bursts
system.mem_ctrls.perBankWrBursts::12                0                       # Per bank write bursts
system.mem_ctrls.perBankWrBursts::13                0                       # Per bank write bursts
system.mem_ctrls.perBankWrBursts::14                0                       # Per bank write bursts
system.mem_ctrls.perBankWrBursts::15                0                       # Per bank write bursts
system.mem_ctrls.numRdRetry                         0                       # Number of times read queue was full causing retry
system.mem_ctrls.numWrRetry                         0                       # Number of times write queue was full causing retry
system.mem_ctrls.totGap                             0                       # Total gap between requests
system.mem_ctrls.readPktSize::0                     0                       # Read request sizes (log2)
system.mem_ctrls.readPktSize::1                     0                       # Read request sizes (log2)
system.mem_ctrls.readPktSize::2                     0                       # Read request sizes (log2)
system.mem_ctrls.readPktSize::3                     0                       # Read request sizes (log2)
system.mem_ctrls.readPktSize::4                     0                       # Read request sizes (log2)
system.mem_ctrls.readPktSize::5                     0                       # Read request sizes (log2)
system.mem_ctrls.readPktSize::6                     0                       # Read request sizes (log2)
system.mem_ctrls.writePktSize::0                    0                       # Write request sizes (log2)
system.mem_ctrls.writePktSize::1                    0                       # Write request sizes (log2)
system.mem_ctrls.writePktSize::2                    0                       # Write request sizes (log2)
system.mem_ctrls.writePktSize::3                    0                       # Write request sizes (log2)
system.mem_ctrls.writePktSize::4                    0                       # Write request sizes (log2)
system.mem_ctrls.writePktSize::5                    0                       # Write request sizes (log2)
system.mem_ctrls.writePktSize::6                    0                       # Write request sizes (log2)
system.mem_ctrls.rdQLenPdf::0                       0                       # What read queue length does an incoming req see
system.mem_ctrls.rdQLenPdf::1                       0                       # What read queue length does an incoming req see
system.mem_ctrls.rdQLenPdf::2                       0                       # What read queue length does an incoming req see
system.mem_ctrls.rdQLenPdf::3                       0                       # What read queue length does an incoming req see
system.mem_ctrls.rdQLenPdf::4                       0                       # What read queue length does an incoming req see
system.mem_ctrls.rdQLenPdf::5                       0                       # What read queue length does an incoming req see
system.mem_ctrls.rdQLenPdf::6                       0                       # What read queue length does an incoming req see
system.mem_ctrls.rdQLenPdf::7                       0                       # What read queue length does an incoming req see
system.mem_ctrls.rdQLenPdf::8                       0                       # What read queue length does an incoming req see
system.mem_ctrls.rdQLenPdf::9                       0                       # What read queue length does an incoming req see
system.mem_ctrls.rdQLenPdf::10                      0                       # What read queue length does an incoming req see
system.mem_ctrls.rdQLenPdf::11                      0                       # What read queue length does an incoming req see
system.mem_ctrls.rdQLenPdf::12                      0                       # What read queue length does an incoming req see
system.mem_ctrls.rdQLenPdf::13                      0                       # What read queue length does an incoming req see
system.mem_ctrls.rdQLenPdf::14                      0                       # What read queue length does an incoming req see
system.mem_ctrls.rdQLenPdf::15                      0                       # What read queue length does an incoming req see
system.mem_ctrls.rdQLenPdf::16                      0                       # What read queue length does an incoming req see
system.mem_ctrls.rdQLenPdf::17                      0                       # What read queue length does an incoming req see
system.mem_ctrls.rdQLenPdf::18                      0                       # What read queue length does an incoming req see
system.mem_ctrls.rdQLenPdf::19                      0                       # What read queue length does an incoming req see
system.mem_ctrls.rdQLenPdf::20                      0                       # What read queue length does an incoming req see
system.mem_ctrls.rdQLenPdf::21                      0                       # What read queue length does an incoming req see
system.mem_ctrls.rdQLenPdf::22                      0                       # What read queue length does an incoming req see
system.mem_ctrls.rdQLenPdf::23                      0                       # What read queue length does an incoming req see
system.mem_ctrls.rdQLenPdf::24                      0                       # What read queue length does an incoming req see
system.mem_ctrls.rdQLenPdf::25                      0                       # What read queue length does an incoming req see
system.mem_ctrls.rdQLenPdf::26                      0                       # What read queue length does an incoming req see
system.mem_ctrls.rdQLenPdf::27                      0                       # What read queue length does an incoming req see
system.mem_ctrls.rdQLenPdf::28                      0                       # What read queue length does an incoming req see
system.mem_ctrls.rdQLenPdf::29                      0                       # What read queue length does an incoming req see
system.mem_ctrls.rdQLenPdf::30                      0                       # What read queue length does an incoming req see
system.mem_ctrls.rdQLenPdf::31                      0                       # What read queue length does an incoming req see
system.mem_ctrls.wrQLenPdf::0                       0                       # What write queue length does an incoming req see
system.mem_ctrls.wrQLenPdf::1                       0                       # What write queue length does an incoming req see
system.mem_ctrls.wrQLenPdf::2                       0                       # What write queue length does an incoming req see
system.mem_ctrls.wrQLenPdf::3                       0                       # What write queue length does an incoming req see
system.mem_ctrls.wrQLenPdf::4                       0                       # What write queue length does an incoming req see
system.mem_ctrls.wrQLenPdf::5                       0                       # What write queue length does an incoming req see
system.mem_ctrls.wrQLenPdf::6                       0                       # What write queue length does an incoming req see
system.mem_ctrls.wrQLenPdf::7                       0                       # What write queue length does an incoming req see
system.mem_ctrls.wrQLenPdf::8                       0                       # What write queue length does an incoming req see
system.mem_ctrls.wrQLenPdf::9                       0                       # What write queue length does an incoming req see
system.mem_ctrls.wrQLenPdf::10                      0                       # What write queue length does an incoming req see
system.mem_ctrls.wrQLenPdf::11                      0                       # What write queue length does an incoming req see
system.mem_ctrls.wrQLenPdf::12                      0                       # What write queue length does an incoming req see
system.mem_ctrls.wrQLenPdf::13                      0                       # What write queue length does an incoming req see
system.mem_ctrls.wrQLenPdf::14                      0                       # What write queue length does an incoming req see
system.mem_ctrls.wrQLenPdf::15                      0                       # What write queue length does an incoming req see
system.mem_ctrls.wrQLenPdf::16                      0                       # What write queue length does an incoming req see
system.mem_ctrls.wrQLenPdf::17                      0                       # What write queue length does an incoming req see
system.mem_ctrls.wrQLenPdf::18                      0                       # What write queue length does an incoming req see
system.mem_ctrls.wrQLenPdf::19                      0                       # What write queue length does an incoming req see
system.mem_ctrls.wrQLenPdf::20                      0                       # What write queue length does an incoming req see
system.mem_ctrls.wrQLenPdf::21                      0                       # What write queue length does an incoming req see
system.mem_ctrls.wrQLenPdf::22                      0                       # What write queue length does an incoming req see
system.mem_ctrls.wrQLenPdf::23                      0                       # What write queue length does an incoming req see
system.mem_ctrls.wrQLenPdf::24                      0                       # What write queue length does an incoming req see
system.mem_ctrls.wrQLenPdf::25                      0                       # What write queue length does an incoming req see
system.mem_ctrls.wrQLenPdf::26                      0                       # What write queue length does an incoming req see
system.mem_ctrls.wrQLenPdf::27                      0                       # What write queue length does an incoming req see
system.mem_ctrls.wrQLenPdf::28                      0                       # What write queue length does an incoming req see
system.mem_ctrls.wrQLenPdf::29                      0                       # What write queue length does an incoming req see
system.mem_ctrls.wrQLenPdf::30                      0                       # What write queue length does an incoming req see
system.mem_ctrls.wrQLenPdf::31                      0                       # What write queue length does an incoming req see
system.mem_ctrls.wrQLenPdf::32                      0                       # What write queue length does an incoming req see
system.mem_ctrls.wrQLenPdf::33                      0                       # What write queue length does an incoming req see
system.mem_ctrls.wrQLenPdf::34                      0                       # What write queue length does an incoming req see
system.mem_ctrls.wrQLenPdf::35                      0                       # What write queue length does an incoming req see
system.mem_ctrls.wrQLenPdf::36                      0                       # What write queue length does an incoming req see
system.mem_ctrls.wrQLenPdf::37                      0                       # What write queue length does an incoming req see
system.mem_ctrls.wrQLenPdf::38                      0                       # What write queue length does an incoming req see
system.mem_ctrls.wrQLenPdf::39                      0                       # What write queue length does an incoming req see
system.mem_ctrls.wrQLenPdf::40                      0                       # What write queue length does an incoming req see
system.mem_ctrls.wrQLenPdf::41                      0                       # What write queue length does an incoming req see
system.mem_ctrls.wrQLenPdf::42                      0                       # What write queue length does an incoming req see
system.mem_ctrls.wrQLenPdf::43                      0                       # What write queue length does an incoming req see
system.mem_ctrls.wrQLenPdf::44                      0                       # What write queue length does an incoming req see
system.mem_ctrls.wrQLenPdf::45                      0                       # What write queue length does an incoming req see
system.mem_ctrls.wrQLenPdf::46                      0                       # What write queue length does an incoming req see
system.mem_ctrls.wrQLenPdf::47                      0                       # What write queue length does an incoming req see
system.mem_ctrls.wrQLenPdf::48                      0                       # What write queue length does an incoming req see
system.mem_ctrls.wrQLenPdf::49                      0                       # What write queue length does an incoming req see
system.mem_ctrls.wrQLenPdf::50                      0                       # What write queue length does an incoming req see
system.mem_ctrls.wrQLenPdf::51                      0                       # What write queue length does an incoming req see
system.mem_ctrls.wrQLenPdf::52                      0                       # What write queue length does an incoming req see
system.mem_ctrls.wrQLenPdf::53                      0                       # What write queue length does an incoming req see
system.mem_ctrls.wrQLenPdf::54                      0                       # What write queue length does an incoming req see
system.mem_ctrls.wrQLenPdf::55                      0                       # What write queue length does an incoming req see
system.mem_ctrls.wrQLenPdf::56                      0                       # What write queue length does an incoming req see
system.mem_ctrls.wrQLenPdf::57                      0                       # What write queue length does an incoming req see
system.mem_ctrls.wrQLenPdf::58                      0                       # What write queue length does an incoming req see
system.mem_ctrls.wrQLenPdf::59                      0                       # What write queue length does an incoming req see
system.mem_ctrls.wrQLenPdf::60                      0                       # What write queue length does an incoming req see
system.mem_ctrls.wrQLenPdf::61                      0                       # What write queue length does an incoming req see
system.mem_ctrls.wrQLenPdf::62                      0                       # What write queue length does an incoming req see
system.mem_ctrls.wrQLenPdf::63                      0                       # What write queue length does an incoming req see
system.mem_ctrls.totQLat                            0                       # Total ticks spent queuing
system.mem_ctrls.totMemAccLat                       0                       # Total ticks spent from burst creation until serviced by the DRAM
system.mem_ctrls.totBusLat                          0                       # Total ticks spent in databus transfers
system.mem_ctrls.avgQLat                          nan                       # Average queueing delay per DRAM burst
system.mem_ctrls.avgBusLat                        nan                       # Average bus latency per DRAM burst
system.mem_ctrls.avgMemAccLat                     nan                       # Average memory access latency per DRAM burst
system.mem_ctrls.avgRdBW                         0.00                       # Average DRAM read bandwidth in MiByte/s
system.mem_ctrls.avgWrBW                         0.00                       # Average achieved write bandwidth in MiByte/s
system.mem_ctrls.avgRdBWSys                      0.00                       # Average system read bandwidth in MiByte/s
system.mem_ctrls.avgWrBWSys                      0.00                       # Average system write bandwidth in MiByte/s
system.mem_ctrls.peakBW                      12800.00                       # Theoretical peak bandwidth in MiByte/s
system.mem_ctrls.busUtil                         0.00                       # Data bus utilization in percentage
system.mem_ctrls.busUtilRead                     0.00                       # Data bus utilization in percentage for reads
system.mem_ctrls.busUtilWrite                    0.00                       # Data bus utilization in percentage for writes
system.mem_ctrls.avgRdQLen                       0.00                       # Average read queue length when enqueuing
system.mem_ctrls.avgWrQLen                       0.00                       # Average write queue length when enqueuing
system.mem_ctrls.readRowHits                        0                       # Number of row buffer hits during reads
system.mem_ctrls.writeRowHits                       0                       # Number of row buffer hits during writes
system.mem_ctrls.readRowHitRate                   nan                       # Row buffer hit rate for reads
system.mem_ctrls.writeRowHitRate                  nan                       # Row buffer hit rate for writes
system.mem_ctrls.avgGap                           nan                       # Average gap between requests
system.mem_ctrls.pageHitRate                      nan                       # Row buffer hit rate, read and write combined
system.mem_ctrls_0.actEnergy                        0                       # Energy for activate commands per rank (pJ)
system.mem_ctrls_0.preEnergy                        0                       # Energy for precharge commands per rank (pJ)
system.mem_ctrls_0.readEnergy                       0                       # Energy for read commands per rank (pJ)
system.mem_ctrls_0.writeEnergy                      0                       # Energy for write commands per rank (pJ)
system.mem_ctrls_0.refreshEnergy                    0                       # Energy for refresh commands per rank (pJ)
system.mem_ctrls_0.actBackEnergy                    0                       # Energy for active background per rank (pJ)
system.mem_ctrls_0.preBackEnergy                    0                       # Energy for precharge background per rank (pJ)
system.mem_ctrls_0.totalEnergy                      0                       # Total energy per rank (pJ)
system.mem_ctrls_0.averagePower                     0                       # Core power per rank (mW)
system.mem_ctrls_0.memoryStateTime::IDLE            0                       # Time in different power states
system.mem_ctrls_0.memoryStateTime::REF             0                       # Time in different power states
system.mem_ctrls_0.memoryStateTime::PRE_PDN            0                       # Time in different power states
system.mem_ctrls_0.memoryStateTime::ACT             0                       # Time in different power states
system.mem_ctrls_0.memoryStateTime::ACT_PDN            0                       # Time in different power states
system.mem_ctrls_1.actEnergy                        0                       # Energy for activate commands per rank (pJ)
system.mem_ctrls_1.preEnergy                        0                       # Energy for precharge commands per rank (pJ)
system.mem_ctrls_1.readEnergy                       0                       # Energy for read commands per rank (pJ)
system.mem_ctrls_1.writeEnergy                      0                       # Energy for write commands per rank (pJ)
system.mem_ctrls_1.refreshEnergy                    0                       # Energy for refresh commands per rank (pJ)
system.mem_ctrls_1.actBackEnergy                    0                       # Energy for active background per rank (pJ)
system.mem_ctrls_1.preBackEnergy                    0                       # Energy for precharge background per rank (pJ)
system.mem_ctrls_1.totalEnergy                      0                       # Total energy per rank (pJ)
system.mem_ctrls_1.averagePower                     0                       # Core power per rank (mW)
system.mem_ctrls_1.memoryStateTime::IDLE            0                       # Time in different power states
system.mem_ctrls_1.memoryStateTime::REF             0                       # Time in different power states
system.mem_ctrls_1.memoryStateTime::PRE_PDN            0                       # Time in different power states
system.mem_ctrls_1.memoryStateTime::ACT             0                       # Time in different power states
system.mem_ctrls_1.memoryStateTime::ACT_PDN            0                       # Time in different power states
system.cpu_voltage_domain.voltage                   1                       # Voltage in Volts
system.cpu_clk_domain.clock                       500                       # Clock period in ticks
system.cpu.dstage2_mmu.stage2_tlb.walker.walks            0                       # Table walker walks requested
system.cpu.dstage2_mmu.stage2_tlb.walker.walkRequestOrigin_Requested::Data            0                       # Table walker requests started/completed, data/inst
system.cpu.dstage2_mmu.stage2_tlb.walker.walkRequestOrigin_Requested::Inst            0                       # Table walker requests started/completed, data/inst
system.cpu.dstage2_mmu.stage2_tlb.walker.walkRequestOrigin_Requested::total            0                       # Table walker requests started/completed, data/inst
system.cpu.dstage2_mmu.stage2_tlb.walker.walkRequestOrigin_Completed::Data            0                       # Table walker requests started/completed, data/inst
system.cpu.dstage2_mmu.stage2_tlb.walker.walkRequestOrigin_Completed::Inst            0                       # Table walker requests started/completed, data/inst
system.cpu.dstage2_mmu.stage2_tlb.walker.walkRequestOrigin_Completed::total            0                       # Table walker requests started/completed, data/inst
system.cpu.dstage2_mmu.stage2_tlb.walker.walkRequestOrigin::total            0                       # Table walker requests started/completed, data/inst
system.cpu.dstage2_mmu.stage2_tlb.inst_hits            0                       # ITB inst hits
system.cpu.dstage2_mmu.stage2_tlb.inst_misses            0                       # ITB inst misses
system.cpu.dstage2_mmu.stage2_tlb.read_hits            0                       # DTB read hits
system.cpu.dstage2_mmu.stage2_tlb.read_misses            0                       # DTB read misses
system.cpu.dstage2_mmu.stage2_tlb.write_hits            0                       # DTB write hits
system.cpu.dstage2_mmu.stage2_tlb.write_misses            0                       # DTB write misses
system.cpu.dstage2_mmu.stage2_tlb.flush_tlb            0                       # Number of times complete TLB was flushed
system.cpu.dstage2_mmu.stage2_tlb.flush_tlb_mva            0                       # Number of times TLB was flushed by MVA
system.cpu.dstage2_mmu.stage2_tlb.flush_tlb_mva_asid            0                       # Number of times TLB was flushed by MVA & ASID
system.cpu.dstage2_mmu.stage2_tlb.flush_tlb_asid            0                       # Number of times TLB was flushed by ASID
system.cpu.dstage2_mmu.stage2_tlb.flush_entries            0                       # Number of entries that have been flushed from TLB
system.cpu.dstage2_mmu.stage2_tlb.align_faults            0                       # Number of TLB faults due to alignment restrictions
system.cpu.dstage2_mmu.stage2_tlb.prefetch_faults            0                       # Number of TLB faults due to prefetch
system.cpu.dstage2_mmu.stage2_tlb.domain_faults            0                       # Number of TLB faults due to domain restrictions
system.cpu.dstage2_mmu.stage2_tlb.perms_faults            0                       # Number of TLB faults due to permissions restrictions
system.cpu.dstage2_mmu.stage2_tlb.read_accesses            0                       # DTB read accesses
system.cpu.dstage2_mmu.stage2_tlb.write_accesses            0                       # DTB write accesses
system.cpu.dstage2_mmu.stage2_tlb.inst_accesses            0                       # ITB inst accesses
system.cpu.dstage2_mmu.stage2_tlb.hits              0                       # DTB hits
system.cpu.dstage2_mmu.stage2_tlb.misses            0                       # DTB misses
system.cpu.dstage2_mmu.stage2_tlb.accesses            0                       # DTB accesses
system.cpu.dtb.walker.walks                         0                       # Table walker walks requested
system.cpu.dtb.walker.walkRequestOrigin_Requested::Data            0                       # Table walker requests started/completed, data/inst
system.cpu.dtb.walker.walkRequestOrigin_Requested::Inst            0                       # Table walker requests started/completed, data/inst
system.cpu.dtb.walker.walkRequestOrigin_Requested::total            0                       # Table walker requests started/completed, data/inst
system.cpu.dtb.walker.walkRequestOrigin_Completed::Data            0                       # Table walker requests started/completed, data/inst
system.cpu.dtb.walker.walkRequestOrigin_Completed::Inst            0                       # Table walker requests started/completed, data/inst
system.cpu.dtb.walker.walkRequestOrigin_Completed::total            0                       # Table walker requests started/completed, data/inst
system.cpu.dtb.walker.walkRequestOrigin::total            0                       # Table walker requests started/completed, data/inst
system.cpu.dtb.inst_hits                            0                       # ITB inst hits
system.cpu.dtb.inst_misses                          0                       # ITB inst misses
system.cpu.dtb.read_hits                            0                       # DTB read hits
system.cpu.dtb.read_misses                          0                       # DTB read misses
system.cpu.dtb.write_hits                           0                       # DTB write hits
system.cpu.dtb.write_misses                         0                       # DTB write misses
system.cpu.dtb.flush_tlb                            0                       # Number of times complete TLB was flushed
system.cpu.dtb.flush_tlb_mva                        0                       # Number of times TLB was flushed by MVA
system.cpu.dtb.flush_tlb_mva_asid                   0                       # Number of times TLB was flushed by MVA & ASID
system.cpu.dtb.flush_tlb_asid                       0                       # Number of times TLB was flushed by ASID
system.cpu.dtb.flush_entries                        0                       # Number of entries that have been flushed from TLB
system.cpu.dtb.align_faults                         0                       # Number of TLB faults due to alignment restrictions
system.cpu.dtb.prefetch_faults                      0                       # Number of TLB faults due to prefetch
system.cpu.dtb.domain_faults                        0                       # Number of TLB faults due to domain restrictions
system.cpu.dtb.perms_faults                         0                       # Number of TLB faults due to permissions restrictions
system.cpu.dtb.read_accesses                        0                       # DTB read accesses
system.cpu.dtb.write_accesses                       0                       # DTB write accesses
system.cpu.dtb.inst_accesses                        0                       # ITB inst accesses
system.cpu.dtb.hits                                 0                       # DTB hits
system.cpu.dtb.misses                               0                       # DTB misses
system.cpu.dtb.accesses                             0                       # DTB accesses
system.cpu.istage2_mmu.stage2_tlb.walker.walks            0                       # Table walker walks requested
system.cpu.istage2_mmu.stage2_tlb.walker.walkRequestOrigin_Requested::Data            0                       # Table walker requests started/completed, data/inst
system.cpu.istage2_mmu.stage2_tlb.walker.walkRequestOrigin_Requested::Inst            0                       # Table walker requests started/completed, data/inst
system.cpu.istage2_mmu.stage2_tlb.walker.walkRequestOrigin_Requested::total            0                       # Table walker requests started/completed, data/inst
system.cpu.istage2_mmu.stage2_tlb.walker.walkRequestOrigin_Completed::Data            0                       # Table walker requests started/completed, data/inst
system.cpu.istage2_mmu.stage2_tlb.walker.walkRequestOrigin_Completed::Inst            0                       # Table walker requests started/completed, data/inst
system.cpu.istage2_mmu.stage2_tlb.walker.walkRequestOrigin_Completed::total            0                       # Table walker requests started/completed, data/inst
system.cpu.istage2_mmu.stage2_tlb.walker.walkRequestOrigin::total            0                       # Table walker requests started/completed, data/inst
system.cpu.istage2_mmu.stage2_tlb.inst_hits            0                       # ITB inst hits
system.cpu.istage2_mmu.stage2_tlb.inst_misses            0                       # ITB inst misses
system.cpu.istage2_mmu.stage2_tlb.read_hits            0                       # DTB read hits
system.cpu.istage2_mmu.stage2_tlb.read_misses            0                       # DTB read misses
system.cpu.istage2_mmu.stage2_tlb.write_hits            0                       # DTB write hits
system.cpu.istage2_mmu.stage2_tlb.write_misses            0                       # DTB write misses
system.cpu.istage2_mmu.stage2_tlb.flush_tlb            0                       # Number of times complete TLB was flushed
system.cpu.istage2_mmu.stage2_tlb.flush_tlb_mva            0                       # Number of times TLB was flushed by MVA
system.cpu.istage2_mmu.stage2_tlb.flush_tlb_mva_asid            0                       # Number of times TLB was flushed by MVA & ASID
system.cpu.istage2_mmu.stage2_tlb.flush_tlb_asid            0                       # Number of times TLB was flushed by ASID
system.cpu.istage2_mmu.stage2_tlb.flush_entries            0                       # Number of entries that have been flushed from TLB
system.cpu.istage2_mmu.stage2_tlb.align_faults            0                       # Number of TLB faults due to alignment restrictions
system.cpu.istage2_mmu.stage2_tlb.prefetch_faults            0                       # Number of TLB faults due to prefetch
system.cpu.istage2_mmu.stage2_tlb.domain_faults            0                       # Number of TLB faults due to domain restrictions
system.cpu.istage2_mmu.stage2_tlb.perms_faults            0                       # Number of TLB faults due to permissions restrictions
system.cpu.istage2_mmu.stage2_tlb.read_accesses            0                       # DTB read accesses
system.cpu.istage2_mmu.stage2_tlb.write_accesses            0                       # DTB write accesses
system.cpu.istage2_mmu.stage2_tlb.inst_accesses            0                       # ITB inst accesses
system.cpu.istage2_mmu.stage2_tlb.hits              0                       # DTB hits
system.cpu.istage2_mmu.stage2_tlb.misses            0                       # DTB misses
system.cpu.istage2_mmu.stage2_tlb.accesses            0                       # DTB accesses
system.cpu.itb.walker.walks                         0                       # Table walker walks requested
system.cpu.itb.walker.walkRequestOrigin_Requested::Data            0                       # Table walker requests started/completed, data/inst
system.cpu.itb.walker.walkRequestOrigin_Requested::Inst            0                       # Table walker requests started/completed, data/inst
system.cpu.itb.walker.walkRequestOrigin_Requested::total            0                       # Table walker requests started/completed, data/inst
system.cpu.itb.walker.walkRequestOrigin_Completed::Data            0                       # Table walker requests started/completed, data/inst
system.cpu.itb.walker.walkRequestOrigin_Completed::Inst            0                       # Table walker requests started/completed, data/inst
system.cpu.itb.walker.walkRequestOrigin_Completed::total            0                       # Table walker requests started/completed, data/inst
system.cpu.itb.walker.walkRequestOrigin::total            0                       # Table walker requests started/completed, data/inst
system.cpu.itb.inst_hits                            0                       # ITB inst hits
system.cpu.itb.inst_misses                          0                       # ITB inst misses
system.cpu.itb.read_hits                            0                       # DTB read hits
system.cpu.itb.read_misses                          0                       # DTB read misses
system.cpu.itb.write_hits                           0                       # DTB write hits
system.cpu.itb.write_misses                         0                       # DTB write misses
system.cpu.itb.flush_tlb                            0                       # Number of times complete TLB was flushed
system.cpu.itb.flush_tlb_mva                        0                       # Number of times TLB was flushed by MVA
system.cpu.itb.flush_tlb_mva_asid                   0                       # Number of times TLB was flushed by MVA & ASID
system.cpu.itb.flush_tlb_asid                       0                       # Number of times TLB was flushed by ASID
system.cpu.itb.flush_entries                        0                       # Number of entries that have been flushed from TLB
system.cpu.itb.align_faults                         0                       # Number of TLB faults due to alignment restrictions
system.cpu.itb.prefetch_faults                      0                       # Number of TLB faults due to prefetch
system.cpu.itb.domain_faults                        0                       # Number of TLB faults due to domain restrictions
system.cpu.itb.perms_faults                         0                       # Number of TLB faults due to permissions restrictions
system.cpu.itb.read_accesses                        0                       # DTB read accesses
system.cpu.itb.write_accesses                       0                       # DTB write accesses
system.cpu.itb.inst_accesses                        0                       # ITB inst accesses
system.cpu.itb.hits                                 0                       # DTB hits
system.cpu.itb.misses                               0                       # DTB misses
system.cpu.itb.accesses                             0                       # DTB accesses
system.cpu.workload.num_syscalls                  240                       # Number of system calls
system.cpu.numCycles                         47875975                       # number of cpu cycles simulated
system.cpu.numWorkItemsStarted                      0                       # number of work items this cpu started
system.cpu.numWorkItemsCompleted                    0                       # number of work items this cpu completed
system.cpu.committedInsts                    45087846                       # Number of instructions committed
system.cpu.committedOps                      47875735                       # Number of ops (including micro ops) committed
system.cpu.num_int_alu_accesses              37876113                       # Number of integer alu accesses
system.cpu.num_fp_alu_accesses                     16                       # Number of float alu accesses
system.cpu.num_func_calls                      481565                       # number of times a function call or return occured
system.cpu.num_conditional_control_insts      9758342                       # number of instructions that are conditional controls
system.cpu.num_int_insts                     37876113                       # number of integer instructions
system.cpu.num_fp_insts                            16                       # number of float instructions
system.cpu.num_int_register_reads            65378681                       # number of times the integer registers were read
system.cpu.num_int_register_writes           22519342                       # number of times the integer registers were written
system.cpu.num_fp_register_reads                   16                       # number of times the floating registers were read
system.cpu.num_fp_register_writes                   0                       # number of times the floating registers were written
system.cpu.num_cc_register_reads            143627925                       # number of times the CC registers were read
system.cpu.num_cc_register_writes            30047247                       # number of times the CC registers were written
system.cpu.num_mem_refs                      15688850                       # number of memory refs
system.cpu.num_load_insts                    10698309                       # Number of load instructions
system.cpu.num_store_insts                    4990541                       # Number of store instructions
system.cpu.num_idle_cycles                   0.002000                       # Number of idle cycles
system.cpu.num_busy_cycles               47875974.998000                       # Number of busy cycles
system.cpu.not_idle_fraction                 1.000000                       # Percentage of non-idle cycles
system.cpu.idle_fraction                     0.000000                       # Percentage of idle cycles
system.cpu.Branches                          10577466                       # Number of branches fetched
system.cpu.op_class::No_OpClass                     0      0.00%      0.00% # Class of executed instruction
system.cpu.op_class::IntAlu                  32167657     67.19%     67.19% # Class of executed instruction
system.cpu.op_class::IntMult                    19468      0.04%     67.23% # Class of executed instruction
system.cpu.op_class::IntDiv                         0      0.00%     67.23% # Class of executed instruction
system.cpu.op_class::FloatAdd                       0      0.00%     67.23% # Class of executed instruction
system.cpu.op_class::FloatCmp                       0      0.00%     67.23% # Class of executed instruction
system.cpu.op_class::FloatCvt                       0      0.00%     67.23% # Class of executed instruction
system.cpu.op_class::FloatMult                      0      0.00%     67.23% # Class of executed instruction
system.cpu.op_class::FloatDiv                       0      0.00%     67.23% # Class of executed instruction
system.cpu.op_class::FloatSqrt                      0      0.00%     67.23% # Class of executed instruction
system.cpu.op_class::SimdAdd                        0      0.00%     67.23% # Class of executed instruction
system.cpu.op_class::SimdAddAcc                     0      0.00%     67.23% # Class of executed instruction
system.cpu.op_class::SimdAlu                        0      0.00%     67.23% # Class of executed instruction
system.cpu.op_class::SimdCmp                        0      0.00%     67.23% # Class of executed instruction
system.cpu.op_class::SimdCvt                        0      0.00%     67.23% # Class of executed instruction
system.cpu.op_class::SimdMisc                       0      0.00%     67.23% # Class of executed instruction
system.cpu.op_class::SimdMult                       0      0.00%     67.23% # Class of executed instruction
system.cpu.op_class::SimdMultAcc                    0      0.00%     67.23% # Class of executed instruction
system.cpu.op_class::SimdShift                      0      0.00%     67.23% # Class of executed instruction
system.cpu.op_class::SimdShiftAcc                   0      0.00%     67.23% # Class of executed instruction
system.cpu.op_class::SimdSqrt                       0      0.00%     67.23% # Class of executed instruction
system.cpu.op_class::SimdFloatAdd                   0      0.00%     67.23% # Class of executed instruction
system.cpu.op_class::SimdFloatAlu                   0      0.00%     67.23% # Class of executed instruction
system.cpu.op_class::SimdFloatCmp                   0      0.00%     67.23% # Class of executed instruction
system.cpu.op_class::SimdFloatCvt                   0      0.00%     67.23% # Class of executed instruction
system.cpu.op_class::SimdFloatDiv                   0      0.00%     67.23% # Class of executed instruction
system.cpu.op_class::SimdFloatMisc                  0      0.00%     67.23% # Class of executed instruction
system.cpu.op_class::SimdFloatMult                  0      0.00%     67.23% # Class of executed instruction
system.cpu.op_class::SimdFloatMultAcc               0      0.00%     67.23% # Class of executed instruction
system.cpu.op_class::SimdFloatSqrt                  0      0.00%     67.23% # Class of executed instruction
system.cpu.op_class::MemRead                 10698309     22.35%     89.58% # Class of executed instruction
system.cpu.op_class::MemWrite                 4990541     10.42%    100.00% # Class of executed instruction
system.cpu.op_class::IprAccess                      0      0.00%    100.00% # Class of executed instruction
system.cpu.op_class::InstPrefetch                   0      0.00%    100.00% # Class of executed instruction
system.cpu.op_class::total                   47875975                       # Class of executed instruction
system.cpu.dcache.tags.replacements           3560152                       # number of replacements
system.cpu.dcache.tags.tagsinuse            63.999647                       # Cycle average of tags in use
system.cpu.dcache.tags.total_refs            12054436                       # Total number of references to valid blocks.
system.cpu.dcache.tags.sampled_refs           3560216                       # Sample count of references to valid blocks.
system.cpu.dcache.tags.avg_refs              3.385872                       # Average number of references to valid blocks.
system.cpu.dcache.tags.warmup_cycle            472500                       # Cycle when the warmup percentage was hit.
system.cpu.dcache.tags.occ_blocks::cpu.data    63.999647                       # Average occupied blocks per requestor
system.cpu.dcache.tags.occ_percent::cpu.data     0.999994                       # Average percentage of cache occupancy
system.cpu.dcache.tags.occ_percent::total     0.999994                       # Average percentage of cache occupancy
system.cpu.dcache.tags.occ_task_id_blocks::1024           64                       # Occupied blocks per task id
system.cpu.dcache.tags.age_task_id_blocks_1024::0           64                       # Occupied blocks per task id
system.cpu.dcache.tags.occ_task_id_percent::1024            1                       # Percentage of cache occupancy per task id
system.cpu.dcache.tags.tag_accesses          66018824                       # Number of tag accesses
system.cpu.dcache.tags.data_accesses         66018824                       # Number of data accesses
system.cpu.dcache.ReadReq_hits::cpu.data      7283861                       # number of ReadReq hits
system.cpu.dcache.ReadReq_hits::total         7283861                       # number of ReadReq hits
system.cpu.dcache.WriteReq_hits::cpu.data      4579561                       # number of WriteReq hits
system.cpu.dcache.WriteReq_hits::total        4579561                       # number of WriteReq hits
system.cpu.dcache.LoadLockedReq_hits::cpu.data        95507                       # number of LoadLockedReq hits
system.cpu.dcache.LoadLockedReq_hits::total        95507                       # number of LoadLockedReq hits
system.cpu.dcache.StoreCondReq_hits::cpu.data        95507                       # number of StoreCondReq hits
system.cpu.dcache.StoreCondReq_hits::total        95507                       # number of StoreCondReq hits
system.cpu.dcache.demand_hits::cpu.data      11863422                       # number of demand (read+write) hits
system.cpu.dcache.demand_hits::total         11863422                       # number of demand (read+write) hits
system.cpu.dcache.overall_hits::cpu.data     11863422                       # number of overall hits
system.cpu.dcache.overall_hits::total        11863422                       # number of overall hits
system.cpu.dcache.ReadReq_misses::cpu.data      3339786                       # number of ReadReq misses
system.cpu.dcache.ReadReq_misses::total       3339786                       # number of ReadReq misses
system.cpu.dcache.WriteReq_misses::cpu.data       220430                       # number of WriteReq misses
system.cpu.dcache.WriteReq_misses::total       220430                       # number of WriteReq misses
system.cpu.dcache.demand_misses::cpu.data      3560216                       # number of demand (read+write) misses
system.cpu.dcache.demand_misses::total        3560216                       # number of demand (read+write) misses
system.cpu.dcache.overall_misses::cpu.data      3560216                       # number of overall misses
system.cpu.dcache.overall_misses::total       3560216                       # number of overall misses
system.cpu.dcache.ReadReq_accesses::cpu.data     10623647                       # number of ReadReq accesses(hits+misses)
system.cpu.dcache.ReadReq_accesses::total     10623647                       # number of ReadReq accesses(hits+misses)
system.cpu.dcache.WriteReq_accesses::cpu.data      4799991                       # number of WriteReq accesses(hits+misses)
system.cpu.dcache.WriteReq_accesses::total      4799991                       # number of WriteReq accesses(hits+misses)
system.cpu.dcache.LoadLockedReq_accesses::cpu.data        95507                       # number of LoadLockedReq accesses(hits+misses)
system.cpu.dcache.LoadLockedReq_accesses::total        95507                       # number of LoadLockedReq accesses(hits+misses)
system.cpu.dcache.StoreCondReq_accesses::cpu.data        95507                       # number of StoreCondReq accesses(hits+misses)
system.cpu.dcache.StoreCondReq_accesses::total        95507                       # number of StoreCondReq accesses(hits+misses)
system.cpu.dcache.demand_accesses::cpu.data     15423638                       # number of demand (read+write) accesses
system.cpu.dcache.demand_accesses::total     15423638                       # number of demand (read+write) accesses
system.cpu.dcache.overall_accesses::cpu.data     15423638                       # number of overall (read+write) accesses
system.cpu.dcache.overall_accesses::total     15423638                       # number of overall (read+write) accesses
system.cpu.dcache.ReadReq_miss_rate::cpu.data     0.314373                       # miss rate for ReadReq accesses
system.cpu.dcache.ReadReq_miss_rate::total     0.314373                       # miss rate for ReadReq accesses
system.cpu.dcache.WriteReq_miss_rate::cpu.data     0.045923                       # miss rate for WriteReq accesses
system.cpu.dcache.WriteReq_miss_rate::total     0.045923                       # miss rate for WriteReq accesses
system.cpu.dcache.demand_miss_rate::cpu.data     0.230829                       # miss rate for demand accesses
system.cpu.dcache.demand_miss_rate::total     0.230829                       # miss rate for demand accesses
system.cpu.dcache.overall_miss_rate::cpu.data     0.230829                       # miss rate for overall accesses
system.cpu.dcache.overall_miss_rate::total     0.230829                       # miss rate for overall accesses
system.cpu.dcache.blocked_cycles::no_mshrs            0                       # number of cycles access was blocked
system.cpu.dcache.blocked_cycles::no_targets            0                       # number of cycles access was blocked
system.cpu.dcache.blocked::no_mshrs                 0                       # number of cycles access was blocked
system.cpu.dcache.blocked::no_targets               0                       # number of cycles access was blocked
system.cpu.dcache.avg_blocked_cycles::no_mshrs          nan                       # average number of cycles each access was blocked
system.cpu.dcache.avg_blocked_cycles::no_targets          nan                       # average number of cycles each access was blocked
system.cpu.dcache.writebacks::writebacks      2663135                       # number of writebacks
system.cpu.dcache.writebacks::total           2663135                       # number of writebacks
system.cpu.icache.tags.replacements           1540110                       # number of replacements
system.cpu.icache.tags.tagsinuse           127.997914                       # Cycle average of tags in use
system.cpu.icache.tags.total_refs            43547848                       # Total number of references to valid blocks.
system.cpu.icache.tags.sampled_refs           1540238                       # Sample count of references to valid blocks.
system.cpu.icache.tags.avg_refs             28.273454                       # Average number of references to valid blocks.
system.cpu.icache.tags.warmup_cycle           2643500                       # Cycle when the warmup percentage was hit.
system.cpu.icache.tags.occ_blocks::cpu.inst   127.997914                       # Average occupied blocks per requestor
system.cpu.icache.tags.occ_percent::cpu.inst     0.999984                       # Average percentage of cache occupancy
system.cpu.icache.tags.occ_percent::total     0.999984                       # Average percentage of cache occupancy
system.cpu.icache.tags.occ_task_id_blocks::1024          128                       # Occupied blocks per task id
system.cpu.icache.tags.age_task_id_blocks_1024::0          117                       # Occupied blocks per task id
system.cpu.icache.tags.age_task_id_blocks_1024::2            2                       # Occupied blocks per task id
system.cpu.icache.tags.age_task_id_blocks_1024::4            9                       # Occupied blocks per task id
system.cpu.icache.tags.occ_task_id_percent::1024            1                       # Percentage of cache occupancy per task id
system.cpu.icache.tags.tag_accesses          46628324                       # Number of tag accesses
system.cpu.icache.tags.data_accesses         46628324                       # Number of data accesses
system.cpu.icache.ReadReq_hits::cpu.inst     43547848                       # number of ReadReq hits
system.cpu.icache.ReadReq_hits::total        43547848                       # number of ReadReq hits
system.cpu.icache.demand_hits::cpu.inst      43547848                       # number of demand (read+write) hits
system.cpu.icache.demand_hits::total         43547848                       # number of demand (read+write) hits
system.cpu.icache.overall_hits::cpu.inst     43547848                       # number of overall hits
system.cpu.icache.overall_hits::total        43547848                       # number of overall hits
system.cpu.icache.ReadReq_misses::cpu.inst      1540238                       # number of ReadReq misses
system.cpu.icache.ReadReq_misses::total       1540238                       # number of ReadReq misses
system.cpu.icache.demand_misses::cpu.inst      1540238                       # number of demand (read+write) misses
system.cpu.icache.demand_misses::total        1540238                       # number of demand (read+write) misses
system.cpu.icache.overall_misses::cpu.inst      1540238                       # number of overall misses
system.cpu.icache.overall_misses::total       1540238                       # number of overall misses
system.cpu.icache.ReadReq_accesses::cpu.inst     45088086                       # number of ReadReq accesses(hits+misses)
system.cpu.icache.ReadReq_accesses::total     45088086                       # number of ReadReq accesses(hits+misses)
system.cpu.icache.demand_accesses::cpu.inst     45088086                       # number of demand (read+write) accesses
system.cpu.icache.demand_accesses::total     45088086                       # number of demand (read+write) accesses
system.cpu.icache.overall_accesses::cpu.inst     45088086                       # number of overall (read+write) accesses
system.cpu.icache.overall_accesses::total     45088086                       # number of overall (read+write) accesses
system.cpu.icache.ReadReq_miss_rate::cpu.inst     0.034161                       # miss rate for ReadReq accesses
system.cpu.icache.ReadReq_miss_rate::total     0.034161                       # miss rate for ReadReq accesses
system.cpu.icache.demand_miss_rate::cpu.inst     0.034161                       # miss rate for demand accesses
system.cpu.icache.demand_miss_rate::total     0.034161                       # miss rate for demand accesses
system.cpu.icache.overall_miss_rate::cpu.inst     0.034161                       # miss rate for overall accesses
system.cpu.icache.overall_miss_rate::total     0.034161                       # miss rate for overall accesses
system.cpu.icache.blocked_cycles::no_mshrs            0                       # number of cycles access was blocked
system.cpu.icache.blocked_cycles::no_targets            0                       # number of cycles access was blocked
system.cpu.icache.blocked::no_mshrs                 0                       # number of cycles access was blocked
system.cpu.icache.blocked::no_targets               0                       # number of cycles access was blocked
system.cpu.icache.avg_blocked_cycles::no_mshrs          nan                       # average number of cycles each access was blocked
system.cpu.icache.avg_blocked_cycles::no_targets          nan                       # average number of cycles each access was blocked
system.cpu.icache.writebacks::writebacks      1540110                       # number of writebacks
system.cpu.icache.writebacks::total           1540110                       # number of writebacks
system.l2.tags.replacements                    321746                       # number of replacements
system.l2.tags.tagsinuse                  1019.148244                       # Cycle average of tags in use
system.l2.tags.total_refs                     9657226                       # Total number of references to valid blocks.
system.l2.tags.sampled_refs                    322769                       # Sample count of references to valid blocks.
system.l2.tags.avg_refs                     29.919930                       # Average number of references to valid blocks.
system.l2.tags.warmup_cycle                3952212500                       # Cycle when the warmup percentage was hit.
system.l2.tags.occ_blocks::writebacks      179.887932                       # Average occupied blocks per requestor
system.l2.tags.occ_blocks::cpu.inst         61.667744                       # Average occupied blocks per requestor
system.l2.tags.occ_blocks::cpu.data        777.592569                       # Average occupied blocks per requestor
system.l2.tags.occ_percent::writebacks       0.175672                       # Average percentage of cache occupancy
system.l2.tags.occ_percent::cpu.inst         0.060222                       # Average percentage of cache occupancy
system.l2.tags.occ_percent::cpu.data         0.759368                       # Average percentage of cache occupancy
system.l2.tags.occ_percent::total            0.995262                       # Average percentage of cache occupancy
system.l2.tags.occ_task_id_blocks::1024          1023                       # Occupied blocks per task id
system.l2.tags.age_task_id_blocks_1024::0          701                       # Occupied blocks per task id
system.l2.tags.age_task_id_blocks_1024::1          233                       # Occupied blocks per task id
system.l2.tags.age_task_id_blocks_1024::2           74                       # Occupied blocks per task id
system.l2.tags.age_task_id_blocks_1024::3            5                       # Occupied blocks per task id
system.l2.tags.age_task_id_blocks_1024::4           10                       # Occupied blocks per task id
system.l2.tags.occ_task_id_percent::1024     0.999023                       # Percentage of cache occupancy per task id
system.l2.tags.tag_accesses                 163750751                       # Number of tag accesses
system.l2.tags.data_accesses                163750751                       # Number of data accesses
system.l2.WritebackDirty_hits::writebacks      2663135                       # number of WritebackDirty hits
system.l2.WritebackDirty_hits::total          2663135                       # number of WritebackDirty hits
system.l2.WritebackClean_hits::writebacks      1539895                       # number of WritebackClean hits
system.l2.WritebackClean_hits::total          1539895                       # number of WritebackClean hits
system.l2.ReadExReq_hits::cpu.data             214788                       # number of ReadExReq hits
system.l2.ReadExReq_hits::total                214788                       # number of ReadExReq hits
system.l2.ReadCleanReq_hits::cpu.inst         1533799                       # number of ReadCleanReq hits
system.l2.ReadCleanReq_hits::total            1533799                       # number of ReadCleanReq hits
system.l2.ReadSharedReq_hits::cpu.data        3031262                       # number of ReadSharedReq hits
system.l2.ReadSharedReq_hits::total           3031262                       # number of ReadSharedReq hits
system.l2.demand_hits::cpu.inst               1533799                       # number of demand (read+write) hits
system.l2.demand_hits::cpu.data               3246050                       # number of demand (read+write) hits
system.l2.demand_hits::total                  4779849                       # number of demand (read+write) hits
system.l2.overall_hits::cpu.inst              1533799                       # number of overall hits
system.l2.overall_hits::cpu.data              3246050                       # number of overall hits
system.l2.overall_hits::total                 4779849                       # number of overall hits
system.l2.ReadExReq_misses::cpu.data             5642                       # number of ReadExReq misses
system.l2.ReadExReq_misses::total                5642                       # number of ReadExReq misses
system.l2.ReadCleanReq_misses::cpu.inst          6439                       # number of ReadCleanReq misses
system.l2.ReadCleanReq_misses::total             6439                       # number of ReadCleanReq misses
system.l2.ReadSharedReq_misses::cpu.data       308524                       # number of ReadSharedReq misses
system.l2.ReadSharedReq_misses::total          308524                       # number of ReadSharedReq misses
system.l2.demand_misses::cpu.inst                6439                       # number of demand (read+write) misses
system.l2.demand_misses::cpu.data              314166                       # number of demand (read+write) misses
system.l2.demand_misses::total                 320605                       # number of demand (read+write) misses
system.l2.overall_misses::cpu.inst               6439                       # number of overall misses
system.l2.overall_misses::cpu.data             314166                       # number of overall misses
system.l2.overall_misses::total                320605                       # number of overall misses
system.l2.WritebackDirty_accesses::writebacks      2663135                       # number of WritebackDirty accesses(hits+misses)
system.l2.WritebackDirty_accesses::total      2663135                       # number of WritebackDirty accesses(hits+misses)
system.l2.WritebackClean_accesses::writebacks      1539895                       # number of WritebackClean accesses(hits+misses)
system.l2.WritebackClean_accesses::total      1539895                       # number of WritebackClean accesses(hits+misses)
system.l2.ReadExReq_accesses::cpu.data         220430                       # number of ReadExReq accesses(hits+misses)
system.l2.ReadExReq_accesses::total            220430                       # number of ReadExReq accesses(hits+misses)
system.l2.ReadCleanReq_accesses::cpu.inst      1540238                       # number of ReadCleanReq accesses(hits+misses)
system.l2.ReadCleanReq_accesses::total        1540238                       # number of ReadCleanReq accesses(hits+misses)
system.l2.ReadSharedReq_accesses::cpu.data      3339786                       # number of ReadSharedReq accesses(hits+misses)
system.l2.ReadSharedReq_accesses::total       3339786                       # number of ReadSharedReq accesses(hits+misses)
system.l2.demand_accesses::cpu.inst           1540238                       # number of demand (read+write) accesses
system.l2.demand_accesses::cpu.data           3560216                       # number of demand (read+write) accesses
system.l2.demand_accesses::total              5100454                       # number of demand (read+write) accesses
system.l2.overall_accesses::cpu.inst          1540238                       # number of overall (read+write) accesses
system.l2.overall_accesses::cpu.data          3560216                       # number of overall (read+write) accesses
system.l2.overall_accesses::total             5100454                       # number of overall (read+write) accesses
system.l2.ReadExReq_miss_rate::cpu.data      0.025595                       # miss rate for ReadExReq accesses
system.l2.ReadExReq_miss_rate::total         0.025595                       # miss rate for ReadExReq accesses
system.l2.ReadCleanReq_miss_rate::cpu.inst     0.004181                       # miss rate for ReadCleanReq accesses
system.l2.ReadCleanReq_miss_rate::total      0.004181                       # miss rate for ReadCleanReq accesses
system.l2.ReadSharedReq_miss_rate::cpu.data     0.092378                       # miss rate for ReadSharedReq accesses
system.l2.ReadSharedReq_miss_rate::total     0.092378                       # miss rate for ReadSharedReq accesses
system.l2.demand_miss_rate::cpu.inst         0.004181                       # miss rate for demand accesses
system.l2.demand_miss_rate::cpu.data         0.088244                       # miss rate for demand accesses
system.l2.demand_miss_rate::total            0.062858                       # miss rate for demand accesses
system.l2.overall_miss_rate::cpu.inst        0.004181                       # miss rate for overall accesses
system.l2.overall_miss_rate::cpu.data        0.088244                       # miss rate for overall accesses
system.l2.overall_miss_rate::total           0.062858                       # miss rate for overall accesses
system.l2.blocked_cycles::no_mshrs                  0                       # number of cycles access was blocked
system.l2.blocked_cycles::no_targets                0                       # number of cycles access was blocked
system.l2.blocked::no_mshrs                         0                       # number of cycles access was blocked
system.l2.blocked::no_targets                       0                       # number of cycles access was blocked
system.l2.avg_blocked_cycles::no_mshrs            nan                       # average number of cycles each access was blocked
system.l2.avg_blocked_cycles::no_targets          nan                       # average number of cycles each access was blocked
system.l2.writebacks::writebacks                21296                       # number of writebacks
system.l2.writebacks::total                     21296                       # number of writebacks
system.membus.trans_dist::ReadResp             314963                       # Transaction distribution
system.membus.trans_dist::WritebackDirty        21296                       # Transaction distribution
system.membus.trans_dist::CleanEvict           298264                       # Transaction distribution
system.membus.trans_dist::ReadExReq              5642                       # Transaction distribution
system.membus.trans_dist::ReadExResp             5642                       # Transaction distribution
system.membus.trans_dist::ReadSharedReq        314963                       # Transaction distribution
system.membus.pkt_count_system.l2.mem_side::system.mem_ctrls.port       960770                       # Packet count per connected master and slave (bytes)
system.membus.pkt_count::total                 960770                       # Packet count per connected master and slave (bytes)
system.membus.pkt_size_system.l2.mem_side::system.mem_ctrls.port      5470416                       # Cumulative packet size per connected master and slave (bytes)
system.membus.pkt_size::total                 5470416                       # Cumulative packet size per connected master and slave (bytes)
system.membus.snoops                                0                       # Total snoops (count)
system.membus.snoop_fanout::samples            640165                       # Request fanout histogram
system.membus.snoop_fanout::mean                    0                       # Request fanout histogram
system.membus.snoop_fanout::stdev                   0                       # Request fanout histogram
system.membus.snoop_fanout::underflows              0      0.00%      0.00% # Request fanout histogram
system.membus.snoop_fanout::0                  640165    100.00%    100.00% # Request fanout histogram
system.membus.snoop_fanout::1                       0      0.00%    100.00% # Request fanout histogram
system.membus.snoop_fanout::overflows               0      0.00%    100.00% # Request fanout histogram
system.membus.snoop_fanout::min_value               0                       # Request fanout histogram
system.membus.snoop_fanout::max_value               0                       # Request fanout histogram
system.membus.snoop_fanout::total              640165                       # Request fanout histogram
system.tol2bus.snoop_filter.tot_requests     10200716                       # Total number of requests made to the snoop filter.
system.tol2bus.snoop_filter.hit_single_requests      5100263                       # Number of requests hitting in the snoop filter with a single holder of the requested data.
system.tol2bus.snoop_filter.hit_multi_requests          244                       # Number of requests hitting in the snoop filter with multiple (>1) holders of the requested data.
system.tol2bus.snoop_filter.tot_snoops           2233                       # Total number of snoops made to the snoop filter.
system.tol2bus.snoop_filter.hit_single_snoops         2233                       # Number of snoops hitting in the snoop filter with a single holder of the requested data.
system.tol2bus.snoop_filter.hit_multi_snoops            0                       # Number of snoops hitting in the snoop filter with multiple (>1) holders of the requested data.
system.tol2bus.trans_dist::ReadResp           4880024                       # Transaction distribution
system.tol2bus.trans_dist::WritebackDirty      2663135                       # Transaction distribution
system.tol2bus.trans_dist::WritebackClean      1540110                       # Transaction distribution
system.tol2bus.trans_dist::CleanEvict          897017                       # Transaction distribution
system.tol2bus.trans_dist::ReadExReq           220430                       # Transaction distribution
system.tol2bus.trans_dist::ReadExResp          220430                       # Transaction distribution
system.tol2bus.trans_dist::ReadCleanReq       1540238                       # Transaction distribution
system.tol2bus.trans_dist::ReadSharedReq      3339786                       # Transaction distribution
system.tol2bus.pkt_count_system.cpu.icache.mem_side::system.l2.cpu_side      4620586                       # Packet count per connected master and slave (bytes)
system.tol2bus.pkt_count_system.cpu.dcache.mem_side::system.l2.cpu_side     10680584                       # Packet count per connected master and slave (bytes)
system.tol2bus.pkt_count::total              15301170                       # Packet count per connected master and slave (bytes)
system.tol2bus.pkt_size_system.cpu.icache.mem_side::system.l2.cpu_side     49285568                       # Cumulative packet size per connected master and slave (bytes)
system.tol2bus.pkt_size_system.cpu.dcache.mem_side::system.l2.cpu_side     99573616                       # Cumulative packet size per connected master and slave (bytes)
system.tol2bus.pkt_size::total              148859184                       # Cumulative packet size per connected master and slave (bytes)
system.tol2bus.snoops                          321746                       # Total snoops (count)
system.tol2bus.snoop_fanout::samples         10522462                       # Request fanout histogram
system.tol2bus.snoop_fanout::mean            0.000259                       # Request fanout histogram
system.tol2bus.snoop_fanout::stdev           0.016082                       # Request fanout histogram
system.tol2bus.snoop_fanout::underflows             0      0.00%      0.00% # Request fanout histogram
system.tol2bus.snoop_fanout::0               10519740     99.97%     99.97% # Request fanout histogram
system.tol2bus.snoop_fanout::1                   2722      0.03%    100.00% # Request fanout histogram
system.tol2bus.snoop_fanout::2                      0      0.00%    100.00% # Request fanout histogram
system.tol2bus.snoop_fanout::overflows              0      0.00%    100.00% # Request fanout histogram
system.tol2bus.snoop_fanout::min_value              0                       # Request fanout histogram
system.tol2bus.snoop_fanout::max_value              1                       # Request fanout histogram
system.tol2bus.snoop_fanout::total           10522462                       # Request fanout histogram

---------- End Simulation Statistics   ----------
